Version 4
SHEET 1 1800 680
WIRE 656 -224 288 -224
WIRE 288 -160 288 -224
WIRE 288 -160 176 -160
WIRE 432 -160 288 -160
WIRE 656 -128 656 -224
WIRE 176 -112 176 -160
WIRE 176 -112 144 -112
WIRE 224 -112 176 -112
WIRE 432 -112 432 -160
WIRE 432 -112 384 -112
WIRE 464 -112 432 -112
WIRE -128 -96 -304 -96
WIRE 144 -96 144 -112
WIRE 384 -96 384 -112
WIRE 224 -48 224 -112
WIRE 224 -48 144 -48
WIRE 464 -48 464 -112
WIRE 464 -48 384 -48
WIRE -128 -32 -128 -96
WIRE 96 -16 48 -16
WIRE 656 0 656 -48
WIRE -304 16 -304 -96
WIRE 48 32 48 -16
WIRE 336 32 336 -16
WIRE 336 32 48 32
WIRE 48 80 48 32
WIRE 144 80 144 0
WIRE 144 80 48 80
WIRE 384 80 384 0
WIRE 720 80 384 80
WIRE 832 80 720 80
WIRE 464 176 256 176
WIRE 144 192 144 80
WIRE 384 192 384 80
WIRE 256 240 256 176
WIRE 256 240 144 240
WIRE 464 240 464 176
WIRE 464 240 384 240
WIRE 256 256 256 240
WIRE -128 272 -128 48
WIRE -128 272 -288 272
WIRE 96 272 48 272
WIRE 336 272 304 272
WIRE 48 304 48 272
WIRE 304 320 304 272
WIRE 528 320 304 320
WIRE 144 336 144 288
WIRE 272 336 144 336
WIRE 384 336 384 288
WIRE 384 336 272 336
WIRE 0 368 -224 368
WIRE -128 384 -128 272
WIRE 272 384 272 336
WIRE -288 416 -288 272
WIRE -224 416 -224 368
WIRE -224 416 -288 416
WIRE -32 432 -128 432
WIRE 368 432 272 432
WIRE -224 464 -224 416
WIRE -176 464 -224 464
WIRE 0 480 0 368
WIRE 224 480 224 464
WIRE 224 480 0 480
WIRE -128 496 -128 480
WIRE -32 496 -32 432
WIRE -32 496 -128 496
WIRE 272 496 272 480
WIRE 368 496 368 432
WIRE 368 496 272 496
WIRE 528 496 528 400
WIRE -128 528 -128 496
WIRE 48 528 48 384
WIRE 272 528 272 496
WIRE 48 640 48 608
WIRE 528 640 528 576
FLAG 256 256 0
FLAG 656 0 0
FLAG -304 16 0
FLAG 528 640 0
FLAG 48 640 0
FLAG -128 528 0
FLAG 272 528 0
FLAG 720 144 0
FLAG 832 80 Vout
SYMBOL nmos4 96 192 R0
SYMATTR InstName M1
SYMATTR Value2 l=1u w=18.4u
SYMBOL nmos4 336 192 R0
SYMATTR InstName M2
SYMATTR Value2 l=1u w=18.4u
SYMBOL nmos4 224 384 R0
SYMATTR InstName M3
SYMATTR Value2 l=1u w=300u
SYMBOL nmos4 -176 384 R0
SYMATTR InstName M4
SYMATTR Value2 l=1u w=300u
SYMBOL pmos4 96 -96 R0
SYMATTR InstName M5
SYMATTR Value2 l=1u w=8u
SYMBOL pmos4 336 -96 R0
SYMATTR InstName M6
SYMATTR Value2 l=1u w=8u
SYMBOL voltage 48 288 R0
WINDOW 123 24 124 Left 2
WINDOW 39 0 0 Left 0
SYMATTR Value2 AC 1
SYMATTR InstName V1
SYMATTR Value SINE(0 4m 1k)
SYMBOL voltage 656 -144 R0
WINDOW 123 0 0 Left 0
WINDOW 39 0 0 Left 0
SYMATTR InstName VDD
SYMATTR Value 2.5
SYMBOL voltage 528 304 R0
WINDOW 123 0 0 Left 0
WINDOW 39 0 0 Left 0
SYMATTR InstName V2
SYMATTR Value SINE(0 4m 1k 0 0 180)
SYMBOL voltage 528 480 R0
WINDOW 123 0 0 Left 0
WINDOW 39 0 0 Left 0
SYMATTR InstName V4
SYMATTR Value 1.2
SYMBOL current -128 -32 R0
WINDOW 123 0 0 Left 0
WINDOW 39 0 0 Left 0
SYMATTR InstName I1
SYMATTR Value 50µ
SYMBOL voltage 48 512 R0
WINDOW 123 0 0 Left 0
WINDOW 39 0 0 Left 0
SYMATTR InstName V3
SYMATTR Value 1.2
SYMBOL cap 704 80 R0
SYMATTR InstName C1
SYMATTR Value 5p
TEXT -328 656 Left 2 !.tran 10m
TEXT 840 184 Left 2 !;ac dec 10m 10 2000000
TEXT 824 280 Left 2 !;op 500n
TEXT 1160 304 Left 2 !.model NMOS NMOS (Kp=110u Vto=0.7 Lambda=0.04)\n.model PMOS PMOS (Kp=50u Vto=-0.7 Lambda=0.05)
